UCSDcircuit1_PV_1/OutputDSS.dss
Clear

New Circuit.ucsdMicrogrid_Reduced bus1=SDG&E_69KV basekv=69 pu=1 angle=0 frequency=60 MVAsc3=20000 MVAsc1=20000 x1r1=8.6 x0r0=8.9 BaseFreq=60
New Line.e_7_10_2_11_e_1_9_1_11 Phases=3 bus1=e_7_10_2_11.1.2.3 bus2=e_1_9_1_11.1.2.3 Units=km Length=0.09906 Rmatrix=[0.0710846666667    0.0120296666667    0.0120296666667| 0.0120296666667    0.0710846666666    0.0120296666667| 0.0120296666667    0.0120296666667    0.0710846666667|] Xmatrix=[ 0.138888666667    0.0503056666667    0.0503056666667| 0.0503056666667     0.138888666667    0.0503056666667| 0.0503056666667    0.0503056666667     0.138888666667|] Cmatrix=[0                  0                  0| 0                  0                  0| 0                  0                  0|]
New Line.e_1_9_1_11_e_1_9_11 Phases=3 bus1=e_1_9_1_11.1.2.3 bus2=e_1_9_11.1.2.3 Units=km Length=0.012192 Rmatrix=[0.0710846666667    0.0120296666667    0.0120296666667| 0.0120296666667    0.0710846666667    0.0120296666667| 0.0120296666667    0.0120296666667    0.0710846666667|] Xmatrix=[ 0.138888666667    0.0503056666667    0.0503056666667| 0.0503056666667     0.138888666667    0.0503056666667| 0.0503056666667    0.0503056666667     0.138888666667|] Cmatrix=[0                  0                  0| 0                  0                  0| 0                  0                  0|]
New Line.e_1_9_1_11_e_1_9_2_11 Phases=3 bus1=e_1_9_1_11.1.2.3 bus2=e_1_9_2_11.1.2.3 Units=km Length=0.071628 Rmatrix=[0.0710846666667    0.0120296666667    0.0120296666667| 0.0120296666667    0.0710846666667    0.0120296666667| 0.0120296666667    0.0120296666667    0.0710846666667|] Xmatrix=[ 0.138888666667    0.0503056666667    0.0503056666667| 0.0503056666667     0.138888666667    0.0503056666667| 0.0503056666667    0.0503056666667     0.138888666667|] Cmatrix=[0                  0                  0| 0                  0                  0| 0                  0                  0|]
New Line.e_1_9_1_11_ss_74_wc Phases=3 bus1=e_1_9_1_11.1.2.3 bus2=ss_74_wc.1.2.3 Units=km Length=0.025908 Rmatrix=[0.0710846666667    0.0120296666667    0.0120296666667| 0.0120296666667    0.0710846666666    0.0120296666667| 0.0120296666667    0.0120296666667    0.0710846666666|] Xmatrix=[ 0.138888666667    0.0503056666667    0.0503056666667| 0.0503056666667     0.138888666667    0.0503056666667| 0.0503056666667    0.0503056666667     0.138888666667|] Cmatrix=[0                  0                  0| 0                  0                  0| 0                  0                  0|]
New Line.ss23_14_ss_23_wc Phases=3 bus1=ss23_14.1.2.3 bus2=ss_23_wc.1.2.3 Units=km Length=0.0003048 Rmatrix=[0.0656166666668    0.0416666666666    0.0416666666667| 0.0416666666666    0.0656166666668    0.0416666666667| 0.0416666666667    0.0416666666667    0.0656166666662|] Xmatrix=[0.319333333333     0.188103333333     0.188103333333| 0.188103333333     0.319333333334     0.188103333333| 0.188103333333     0.188103333333     0.319333333332|] Cmatrix=[0                  0                  0| 0                  0                  0| 0                  0                  0|]
New Line.ss_23_wc_war_col_1_pri Phases=3 bus1=ss_23_wc.1.2.3 bus2=war_col_1_pri.1.2.3 Units=km Length=0.00762 Rmatrix=[        0.16076    0.0262500000001            0.02625| 0.0262500000001     0.160760000002    0.0262499999993|         0.02625    0.0262499999993            0.16076|] Xmatrix=[ 0.148729999999    0.0503050000003    0.0503050000002| 0.0503050000003     0.148730000001    0.0503049999998| 0.0503050000002    0.0503049999998     0.148730000001|] Cmatrix=[0                  0                  0| 0                  0                  0| 0                  0                  0|]
New Line.ss_126_bus_0861 Phases=3 bus1=ss_126.1.2.3 bus2=bus_0861.1.2.3 Units=km Length=0.0003048 Rmatrix=[ 0.0514000000003   0.00874899999999   0.00874900000001| 0.00874899999999    0.0513999999992   0.00874900000007| 0.00874900000001   0.00874900000007    0.0514000000005|] Xmatrix=[ 0.125767333334    0.0437463333333    0.0437463333333| 0.0437463333333     0.125767333333    0.0437463333334| 0.0437463333333    0.0437463333334     0.125767333335|] Cmatrix=[0                  0                  0| 0                  0                  0| 0                  0                  0|]
New Line.ss_126_bus_0862 Phases=3 bus1=ss_126.1.2.3 bus2=bus_0862.1.2.3 Units=km Length=0.0003048 Rmatrix=[ 0.0514000000005   0.00874899999999   0.00874900000002| 0.00874899999999    0.0513999999996   0.00874900000002| 0.00874900000002   0.00874900000002    0.0513999999998|] Xmatrix=[ 0.125767333334    0.0437463333333    0.0437463333332| 0.0437463333333     0.125767333333    0.0437463333333| 0.0437463333332    0.0437463333333     0.125767333334|] Cmatrix=[0                  0                  0| 0                  0                  0| 0                  0                  0|]
New Line.ss_127_bus_0865 Phases=3 bus1=ss_127.1.2.3 bus2=bus_0865.1.2.3 Units=km Length=0.0003048 Rmatrix=[ 0.0513999999993   0.00874899999996   0.00874899999997| 0.00874899999996    0.0514000000002   0.00874900000003| 0.00874899999997   0.00874900000003    0.0514000000002|] Xmatrix=[ 0.125767333333    0.0437463333335    0.0437463333334| 0.0437463333335     0.125767333333    0.0437463333335| 0.0437463333334    0.0437463333335     0.125767333334|] Cmatrix=[0                  0                  0| 0                  0                  0| 0                  0                  0|]
New Line.ss_127_bus_0866 Phases=3 bus1=ss_127.1.2.3 bus2=bus_0866.1.2.3 Units=km Length=0.0003048 Rmatrix=[  0.051399999999   0.00874899999991   0.00874899999999| 0.00874899999991    0.0514000000001   0.00874899999994| 0.00874899999999   0.00874899999994    0.0513999999996|] Xmatrix=[ 0.125767333333    0.0437463333335    0.0437463333333| 0.0437463333335     0.125767333332    0.0437463333334| 0.0437463333333    0.0437463333334     0.125767333335|] Cmatrix=[0                  0                  0| 0                  0                  0| 0                  0                  0|]
New Line.e_4_404_e_4_1_404 Phases=3 bus1=e_4_404.1.2.3 bus2=e_4_1_404.1.2.3 Units=km Length=0.057912 Rmatrix=[  0.0514           0.008749           0.008749| 0.008749             0.0514           0.008749| 0.008749           0.008749             0.0514|] Xmatrix=[ 0.125767333333    0.0437463333333    0.0437463333333| 0.0437463333333     0.125767333333    0.0437463333333| 0.0437463333333    0.0437463333333     0.125767333333|] Cmatrix=[0                  0                  0| 0                  0                  0| 0                  0                  0|]
New Line.e_4_1_404_e_4_2_404 Phases=3 bus1=e_4_1_404.1.2.3 bus2=e_4_2_404.1.2.3 Units=km Length=0.0679704 Rmatrix=[  0.0514           0.008749           0.008749| 0.008749             0.0514           0.008749| 0.008749           0.008749             0.0514|] Xmatrix=[ 0.125767333333    0.0437463333333    0.0437463333333| 0.0437463333333     0.125767333333    0.0437463333333| 0.0437463333333    0.0437463333333     0.125767333333|] Cmatrix=[0                  0                  0| 0                  0                  0| 0                  0                  0|]
New Line.e_4_405_e_4_1_405 Phases=3 bus1=e_4_405.1.2.3 bus2=e_4_1_405.1.2.3 Units=km Length=0.057912 Rmatrix=[  0.0514           0.008749           0.008749| 0.008749             0.0514           0.008749| 0.008749           0.008749             0.0514|] Xmatrix=[ 0.125767333333    0.0437463333333    0.0437463333333| 0.0437463333333     0.125767333333    0.0437463333333| 0.0437463333333    0.0437463333333     0.125767333333|] Cmatrix=[0                  0                  0| 0                  0                  0| 0                  0                  0|]
New Line.e_4_1_405_e_4_2_405 Phases=3 bus1=e_4_1_405.1.2.3 bus2=e_4_2_405.1.2.3 Units=km Length=0.0679704 Rmatrix=[  0.0514           0.008749           0.008749| 0.008749             0.0514           0.008749| 0.008749           0.008749             0.0514|] Xmatrix=[ 0.125767333333    0.0437463333333    0.0437463333333| 0.0437463333333     0.125767333333    0.0437463333333| 0.0437463333333    0.0437463333333     0.125767333333|] Cmatrix=[0                  0                  0| 0                  0                  0| 0                  0                  0|]
New Line.e_4_409_e_4_1_409 Phases=3 bus1=e_4_409.1.2.3 bus2=e_4_1_409.1.2.3 Units=km Length=0.0612648 Rmatrix=[0.0710846666667    0.0120296666667    0.0120296666667| 0.0120296666667    0.0710846666667    0.0120296666667| 0.0120296666667    0.0120296666667    0.0710846666667|] Xmatrix=[ 0.138888666667    0.0503056666667    0.0503056666667| 0.0503056666667     0.138888666667    0.0503056666667| 0.0503056666667    0.0503056666667     0.138888666667|] Cmatrix=[0                  0                  0| 0                  0                  0| 0                  0                  0|]
New Line.e_4_1_409_e_4_2_409 Phases=3 bus1=e_4_1_409.1.2.3 bus2=e_4_2_409.1.2.3 Units=km Length=0.074676 Rmatrix=[0.0710846666667    0.0120296666667    0.0120296666667| 0.0120296666667    0.0710846666667    0.0120296666667| 0.0120296666667    0.0120296666667    0.0710846666667|] Xmatrix=[ 0.138888666667    0.0503056666667    0.0503056666667| 0.0503056666667     0.138888666667    0.0503056666667| 0.0503056666667    0.0503056666667     0.138888666667|] Cmatrix=[0                  0                  0| 0                  0                  0| 0                  0                  0|]
New Line.e_4_2_404_e_5_4_2_404 Phases=3 bus1=e_4_2_404.1.2.3 bus2=e_5_4_2_404.1.2.3 Units=km Length=0.0381 Rmatrix=[  0.0514           0.008749           0.008749| 0.008749             0.0514           0.008749| 0.008749           0.008749             0.0514|] Xmatrix=[ 0.125767333333    0.0437463333333    0.0437463333333| 0.0437463333333     0.125767333333    0.0437463333333| 0.0437463333333    0.0437463333333     0.125767333333|] Cmatrix=[0                  0                  0| 0                  0                  0| 0                  0                  0|]
New Line.e_4_2_404_ss_131 Phases=3 bus1=e_4_2_404.1.2.3 bus2=ss_131.1.2.3 Units=km Length=0.52578 Rmatrix=[ 0.0513999999993   0.00874899999995   0.00874900000002| 0.00874899999995    0.0514000000001   0.00874900000001| 0.00874900000002   0.00874900000001    0.0513999999997|] Xmatrix=[ 0.125767333332    0.0437463333332    0.0437463333333| 0.0437463333332     0.125767333334    0.0437463333332| 0.0437463333333    0.0437463333332     0.125767333333|] Cmatrix=[0                  0                  0| 0                  0                  0| 0                  0                  0|]
New Line.e_4_2_405_e_5_4_2_405 Phases=3 bus1=e_4_2_405.1.2.3 bus2=e_5_4_2_405.1.2.3 Units=km Length=0.0381 Rmatrix=[  0.0514           0.008749           0.008749| 0.008749             0.0514           0.008749| 0.008749           0.008749             0.0514|] Xmatrix=[ 0.125767333333    0.0437463333333    0.0437463333333| 0.0437463333333     0.125767333333    0.0437463333333| 0.0437463333333    0.0437463333333     0.125767333333|] Cmatrix=[0                  0                  0| 0                  0                  0| 0                  0                  0|]
New Line.e_4_2_405_ss_130 Phases=3 bus1=e_4_2_405.1.2.3 bus2=ss_130.1.2.3 Units=km Length=0.5245608 Rmatrix=[ 0.0514000000001           0.008749   0.00874900000002|         0.008749    0.0514000000001   0.00874899999999| 0.00874900000002   0.00874899999999    0.0514000000003|] Xmatrix=[ 0.125767333333    0.0437463333334    0.0437463333334| 0.0437463333334     0.125767333333    0.0437463333334| 0.0437463333334    0.0437463333334     0.125767333335|] Cmatrix=[0                  0                  0| 0                  0                  0| 0                  0                  0|]
New Line.e_4_2_409_ss_125_mcss Phases=3 bus1=e_4_2_409.1.2.3 bus2=ss_125_mcss.1.2.3 Units=km Length=0.0201168 Rmatrix=[0.0710846666667    0.0120296666667    0.0120296666667| 0.0120296666667    0.0710846666667    0.0120296666667| 0.0120296666667    0.0120296666667    0.0710846666667|] Xmatrix=[ 0.138888666667    0.0503056666667    0.0503056666667| 0.0503056666667     0.138888666667    0.0503056666667| 0.0503056666667    0.0503056666667     0.138888666667|] Cmatrix=[0                  0                  0| 0                  0                  0| 0                  0                  0|]
New Line.mcss_mb_e_4_404 Phases=3 bus1=mcss_mb.1.2.3 bus2=e_4_404.1.2.3 Units=km Length=0.0381 Rmatrix=[  0.0514           0.008749           0.008749| 0.008749             0.0514           0.008749| 0.008749           0.008749             0.0514|] Xmatrix=[ 0.125767333333    0.0437463333333    0.0437463333333| 0.0437463333333     0.125767333333    0.0437463333333| 0.0437463333333    0.0437463333333     0.125767333333|] Cmatrix=[0                  0                  0| 0                  0                  0| 0                  0                  0|]
New Line.mcss_mb_e_4_406 Phases=3 bus1=mcss_mb.1.2.3 bus2=e_4_406.1.2.3 Units=km Length=0.0381 Rmatrix=[  0.0514           0.008749           0.008749| 0.008749             0.0514           0.008749| 0.008749           0.008749             0.0514|] Xmatrix=[ 0.125767333333    0.0437463333333    0.0437463333333| 0.0437463333333     0.125767333333    0.0437463333333| 0.0437463333333    0.0437463333333     0.125767333333|] Cmatrix=[0                  0                  0| 0                  0                  0| 0                  0                  0|]
New Line.mcss_mb_e_6a_6_412 Phases=3 bus1=mcss_mb.1.2.3 bus2=e_6a_6_412.1.2.3 Units=km Length=0.036576 Rmatrix=[0.0710846666667    0.0120296666667    0.0120296666667| 0.0120296666667    0.0710846666667    0.0120296666667| 0.0120296666667    0.0120296666667    0.0710846666667|] Xmatrix=[ 0.138888666667    0.0503056666667    0.0503056666667| 0.0503056666667     0.138888666667    0.0503056666667| 0.0503056666667    0.0503056666667     0.138888666667|] Cmatrix=[0                  0                  0| 0                  0                  0| 0                  0                  0|]
New Line.mcss_mb_bus_xf_cpt_1b Phases=3 bus1=mcss_mb.1.2.3 bus2=bus_xf_cpt_1b.1.2.3 Units=km Length=0.03048 Rmatrix=[ 0.322616666667    0.0535866666667    0.0535866666667| 0.0535866666667     0.322616666667    0.0535866666667| 0.0535866666667    0.0535866666667     0.322616666667|] Xmatrix=[0.16295            0.05468            0.05468| 0.05468            0.16295            0.05468| 0.05468            0.05468            0.16295|] Cmatrix=[0                  0                  0| 0                  0                  0| 0                  0                  0|]
New Line.mcss_ma_e_4_405 Phases=3 bus1=mcss_ma.1.2.3 bus2=e_4_405.1.2.3 Units=km Length=0.03048 Rmatrix=[  0.0514           0.008749           0.008749| 0.008749             0.0514           0.008749| 0.008749           0.008749             0.0514|] Xmatrix=[ 0.125767333333    0.0437463333333    0.0437463333333| 0.0437463333333     0.125767333333    0.0437463333333| 0.0437463333333    0.0437463333333     0.125767333333|] Cmatrix=[0                  0                  0| 0                  0                  0| 0                  0                  0|]
New Line.mcss_ma_e_4_409 Phases=3 bus1=mcss_ma.1.2.3 bus2=e_4_409.1.2.3 Units=km Length=0.033528 Rmatrix=[0.0710846666667    0.0120296666667    0.0120296666667| 0.0120296666667    0.0710846666666    0.0120296666667| 0.0120296666667    0.0120296666667    0.0710846666667|] Xmatrix=[ 0.138888666667    0.0503056666667    0.0503056666667| 0.0503056666667     0.138888666667    0.0503056666667| 0.0503056666667    0.0503056666667     0.138888666667|] Cmatrix=[0                  0                  0| 0                  0                  0| 0                  0                  0|]
New Line.mcss_ma_e_4_407 Phases=3 bus1=mcss_ma.1.2.3 bus2=e_4_407.1.2.3 Units=km Length=0.03048 Rmatrix=[  0.0514           0.008749           0.008749| 0.008749             0.0514           0.008749| 0.008749           0.008749             0.0514|] Xmatrix=[ 0.125767333333    0.0437463333333    0.0437463333333| 0.0437463333333     0.125767333333    0.0437463333333| 0.0437463333333    0.0437463333333     0.125767333333|] Cmatrix=[0                  0                  0| 0                  0                  0| 0                  0                  0|]
New Line.mcss_ma_e_4_413 Phases=3 bus1=mcss_ma.1.2.3 bus2=e_4_413.1.2.3 Units=km Length=0.064008 Rmatrix=[0.0710846666667    0.0120296666667    0.0120296666667| 0.0120296666667    0.0710846666667    0.0120296666667| 0.0120296666667    0.0120296666667    0.0710846666667|] Xmatrix=[ 0.138888666667    0.0503056666667    0.0503056666667| 0.0503056666667     0.138888666667    0.0503056666667| 0.0503056666667    0.0503056666667     0.138888666667|] Cmatrix=[0                  0                  0| 0                  0                  0| 0                  0                  0|]
New Line.mcss_ma_bus_xf_cpt_1a Phases=3 bus1=mcss_ma.1.2.3 bus2=bus_xf_cpt_1a.1.2.3 Units=km Length=0.0277368 Rmatrix=[ 0.322616666667    0.0535866666667    0.0535866666667| 0.0535866666667     0.322616666667    0.0535866666667| 0.0535866666667    0.0535866666667     0.322616666667|] Xmatrix=[0.16295            0.05468            0.05468| 0.05468            0.16295            0.05468| 0.05468            0.05468            0.16295|] Cmatrix=[0                  0                  0| 0                  0                  0| 0                  0                  0|]
New Line.e_4_407_e_5_4_407 Phases=3 bus1=e_4_407.1.2.3 bus2=e_5_4_407.1.2.3 Units=km Length=0.062484 Rmatrix=[  0.0514           0.008749           0.008749| 0.008749             0.0514           0.008749| 0.008749           0.008749             0.0514|] Xmatrix=[ 0.125767333333    0.0437463333333    0.0437463333333| 0.0437463333333     0.125767333333    0.0437463333333| 0.0437463333333    0.0437463333333     0.125767333333|] Cmatrix=[0                  0                  0| 0                  0                  0| 0                  0                  0|]
New Line.e_4_413_e_5_4_413 Phases=3 bus1=e_4_413.1.2.3 bus2=e_5_4_413.1.2.3 Units=km Length=0.062484 Rmatrix=[0.0710846666667    0.0120296666667    0.0120296666667| 0.0120296666667    0.0710846666667    0.0120296666667| 0.0120296666667    0.0120296666667    0.0710846666667|] Xmatrix=[ 0.138888666667    0.0503056666667    0.0503056666667| 0.0503056666667     0.138888666667    0.0503056666667| 0.0503056666667    0.0503056666667     0.138888666667|] Cmatrix=[0                  0                  0| 0                  0                  0| 0                  0                  0|]
New Line.e_5_8_1_413_e_4_9_413 Phases=3 bus1=e_5_8_1_413.1.2.3 bus2=e_4_9_413.1.2.3 Units=km Length=0.1524 Rmatrix=[  0.0514           0.008749           0.008749| 0.008749             0.0514           0.008749| 0.008749           0.008749             0.0514|] Xmatrix=[ 0.125767333333    0.0437463333333    0.0437463333333| 0.0437463333333     0.125767333333    0.0437463333333| 0.0437463333333    0.0437463333333     0.125767333333|] Cmatrix=[0                  0                  0| 0                  0                  0| 0                  0                  0|]
New Line.e_4_9_413_ss_123 Phases=3 bus1=e_4_9_413.1.2.3 bus2=ss_123.1.2.3 Units=km Length=0.1063752 Rmatrix=[  0.0514           0.008749           0.008749| 0.008749             0.0514           0.008749| 0.008749           0.008749             0.0514|] Xmatrix=[ 0.125767333333    0.0437463333333    0.0437463333333| 0.0437463333333     0.125767333333    0.0437463333333| 0.0437463333333    0.0437463333333     0.125767333333|] Cmatrix=[0                  0                  0| 0                  0                  0| 0                  0                  0|]
New Line.e_5_3_ss_138_e_5_3_1_ss_138 Phases=3 bus1=e_5_3_ss_138.1.2.3 bus2=e_5_3_1_ss_138.1.2.3 Units=km Length=0.006096 Rmatrix=[0.0710846666666    0.0120296666667    0.0120296666667| 0.0120296666667    0.0710846666667    0.0120296666667| 0.0120296666667    0.0120296666667    0.0710846666667|] Xmatrix=[ 0.138888666667    0.0503056666667    0.0503056666667| 0.0503056666667     0.138888666667    0.0503056666667| 0.0503056666667    0.0503056666667     0.138888666667|] Cmatrix=[0                  0                  0| 0                  0                  0| 0                  0                  0|]
New Line.e_5_3_1_ss_138_e_5_3_2_ss_138 Phases=3 bus1=e_5_3_1_ss_138.1.2.3 bus2=e_5_3_2_ss_138.1.2.3 Units=km Length=0.067056 Rmatrix=[0.0710846666666    0.0120296666667    0.0120296666667| 0.0120296666667    0.0710846666667    0.0120296666667| 0.0120296666667    0.0120296666667    0.0710846666666|] Xmatrix=[ 0.138888666667    0.0503056666667    0.0503056666667| 0.0503056666667     0.138888666667    0.0503056666667| 0.0503056666667    0.0503056666667     0.138888666667|] Cmatrix=[0                  0                  0| 0                  0                  0| 0                  0                  0|]
New Line.e_5_1_412_e_5_3_412 Phases=3 bus1=e_5_1_412.1.2.3 bus2=e_5_3_412.1.2.3 Units=km Length=0.265176 Rmatrix=[0.0710846666667    0.0120296666667    0.0120296666667| 0.0120296666667    0.0710846666667    0.0120296666667| 0.0120296666667    0.0120296666667    0.0710846666667|] Xmatrix=[ 0.138888666667    0.0503056666667    0.0503056666667| 0.0503056666667     0.138888666667    0.0503056666667| 0.0503056666667    0.0503056666667     0.138888666667|] Cmatrix=[0                  0                  0| 0                  0                  0| 0                  0                  0|]
New Line.e_5_3_412_e_5_2_13 Phases=3 bus1=e_5_3_412.1.2.3 bus2=e_5_2_13.1.2.3 Units=km Length=0.12192 Rmatrix=[0.0710846666667    0.0120296666667    0.0120296666667| 0.0120296666667    0.0710846666667    0.0120296666667| 0.0120296666667    0.0120296666667    0.0710846666667|] Xmatrix=[ 0.138888666667    0.0503056666667    0.0503056666667| 0.0503056666667     0.138888666667    0.0503056666667| 0.0503056666667    0.0503056666667     0.138888666667|] Cmatrix=[0                  0                  0| 0                  0                  0| 0                  0                  0|]
New Line.e_5_3_412_e_5_3_1_412 Phases=3 bus1=e_5_3_412.1.2.3 bus2=e_5_3_1_412.1.2.3 Units=km Length=0.021336 Rmatrix=[0.0710846666667    0.0120296666667    0.0120296666667| 0.0120296666667    0.0710846666667    0.0120296666667| 0.0120296666667    0.0120296666667    0.0710846666666|] Xmatrix=[ 0.138888666667    0.0503056666667    0.0503056666667| 0.0503056666667     0.138888666667    0.0503056666667| 0.0503056666667    0.0503056666667     0.138888666667|] Cmatrix=[0                  0                  0| 0                  0                  0| 0                  0                  0|]
New Line.e_5_1_437_e_5_3_437 Phases=3 bus1=e_5_1_437.1.2.3 bus2=e_5_3_437.1.2.3 Units=km Length=0.265176 Rmatrix=[0.0710846666667    0.0120296666667    0.0120296666667| 0.0120296666667    0.0710846666667    0.0120296666667| 0.0120296666667    0.0120296666667    0.0710846666667|] Xmatrix=[ 0.138888666667    0.0503056666667    0.0503056666667| 0.0503056666667     0.138888666667    0.0503056666667| 0.0503056666667    0.0503056666667     0.138888666667|] Cmatrix=[0                  0                  0| 0                  0                  0| 0                  0                  0|]
New Line.e_5_3_437_e_5_3_1_437 Phases=3 bus1=e_5_3_437.1.2.3 bus2=e_5_3_1_437.1.2.3 Units=km Length=0.021336 Rmatrix=[0.0710846666667    0.0120296666667    0.0120296666667| 0.0120296666667    0.0710846666667    0.0120296666667| 0.0120296666667    0.0120296666667    0.0710846666667|] Xmatrix=[ 0.138888666667    0.0503056666667    0.0503056666667| 0.0503056666667     0.138888666667    0.0503056666667| 0.0503056666667    0.0503056666667     0.138888666667|] Cmatrix=[0                  0                  0| 0                  0                  0| 0                  0                  0|]
New Line.ss_51_ec_e_5_3_ss_138 Phases=3 bus1=ss_51_ec.1.2.3 bus2=e_5_3_ss_138.1.2.3 Units=km Length=0.01524 Rmatrix=[0.0710846666666    0.0120296666667    0.0120296666667| 0.0120296666667    0.0710846666668    0.0120296666667| 0.0120296666667    0.0120296666667    0.0710846666667|] Xmatrix=[ 0.138888666667    0.0503056666667    0.0503056666667| 0.0503056666667     0.138888666667    0.0503056666667| 0.0503056666667    0.0503056666667     0.138888666667|] Cmatrix=[0                  0                  0| 0                  0                  0| 0                  0                  0|]
New Line.ss_51_ec_t_270_pri Phases=3 bus1=ss_51_ec.1.2.3 bus2=t_270_pri.1.2.3 Units=km Length=0.006096 Rmatrix=[0.0710846666667    0.0120296666667    0.0120296666667| 0.0120296666667    0.0710846666666    0.0120296666667| 0.0120296666667    0.0120296666667    0.0710846666666|] Xmatrix=[ 0.138888666667    0.0503056666667    0.0503056666667| 0.0503056666667     0.138888666667    0.0503056666667| 0.0503056666667    0.0503056666667     0.138888666667|] Cmatrix=[0                  0                  0| 0                  0                  0| 0                  0                  0|]
New Line.ss_51_ec_bus_t_357_pri_cng Phases=3 bus1=ss_51_ec.1.2.3 bus2=bus_t_357_pri_cng.1.2.3 Units=km Length=0.041148 Rmatrix=[0.0710846666667    0.0120296666667    0.0120296666667| 0.0120296666667    0.0710846666667    0.0120296666667| 0.0120296666667    0.0120296666667    0.0710846666666|] Xmatrix=[ 0.138888666667    0.0503056666667    0.0503056666667| 0.0503056666667     0.138888666667    0.0503056666667| 0.0503056666667    0.0503056666667     0.138888666667|] Cmatrix=[0                  0                  0| 0                  0                  0| 0                  0                  0|]
New Line.e_5_4_2_404_ss_115_ec Phases=3 bus1=e_5_4_2_404.1.2.3 bus2=ss_115_ec.1.2.3 Units=km Length=0.06858 Rmatrix=[  0.0514           0.008749           0.008749| 0.008749             0.0514           0.008749| 0.008749           0.008749             0.0514|] Xmatrix=[ 0.125767333333    0.0437463333333    0.0437463333333| 0.0437463333333     0.125767333333    0.0437463333333| 0.0437463333333    0.0437463333333     0.125767333333|] Cmatrix=[0                  0                  0| 0                  0                  0| 0                  0                  0|]
New Line.e_5_4_2_405_ss_114_ec Phases=3 bus1=e_5_4_2_405.1.2.3 bus2=ss_114_ec.1.2.3 Units=km Length=0.06858 Rmatrix=[  0.0514           0.008749           0.008749| 0.008749             0.0514           0.008749| 0.008749           0.008749             0.0514|] Xmatrix=[ 0.125767333333    0.0437463333333    0.0437463333333| 0.0437463333333     0.125767333333    0.0437463333333| 0.0437463333333    0.0437463333333     0.125767333333|] Cmatrix=[0                  0                  0| 0                  0                  0| 0                  0                  0|]
New Line.e_4_406_e_5_4_406 Phases=3 bus1=e_4_406.1.2.3 bus2=e_5_4_406.1.2.3 Units=km Length=0.062484 Rmatrix=[  0.0514           0.008749           0.008749| 0.008749             0.0514           0.008749| 0.008749           0.008749             0.0514|] Xmatrix=[ 0.125767333333    0.0437463333333    0.0437463333333| 0.0437463333333     0.125767333333    0.0437463333333| 0.0437463333333    0.0437463333333     0.125767333333|] Cmatrix=[0                  0                  0| 0                  0                  0| 0                  0                  0|]
New Line.e_5_4_406_e_5_5_406 Phases=3 bus1=e_5_4_406.1.2.3 bus2=e_5_5_406.1.2.3 Units=km Length=0.12192 Rmatrix=[0.0710846666667    0.0120296666667    0.0120296666667| 0.0120296666667    0.0710846666667    0.0120296666667| 0.0120296666667    0.0120296666667    0.0710846666667|] Xmatrix=[ 0.138888666667    0.0503056666667    0.0503056666667| 0.0503056666667     0.138888666667    0.0503056666667| 0.0503056666667    0.0503056666667     0.138888666667|] Cmatrix=[0                  0                  0| 0                  0                  0| 0                  0                  0|]
New Line.e_5_4_407_e_5_5_407 Phases=3 bus1=e_5_4_407.1.2.3 bus2=e_5_5_407.1.2.3 Units=km Length=0.12192 Rmatrix=[0.0710846666667    0.0120296666667    0.0120296666667| 0.0120296666667    0.0710846666667    0.0120296666667| 0.0120296666667    0.0120296666667    0.0710846666667|] Xmatrix=[ 0.138888666667    0.0503056666667    0.0503056666667| 0.0503056666667     0.138888666667    0.0503056666667| 0.0503056666667    0.0503056666667     0.138888666667|] Cmatrix=[0                  0                  0| 0                  0                  0| 0                  0                  0|]
New Line.e_5_4_413_e_5_7_413 Phases=3 bus1=e_5_4_413.1.2.3 bus2=e_5_7_413.1.2.3 Units=km Length=0.1085088 Rmatrix=[  0.0514           0.008749           0.008749| 0.008749             0.0514           0.008749| 0.008749           0.008749             0.0514|] Xmatrix=[ 0.125767333333    0.0437463333333    0.0437463333333| 0.0437463333333     0.125767333333    0.0437463333333| 0.0437463333333    0.0437463333333     0.125767333333|] Cmatrix=[0                  0                  0| 0                  0                  0| 0                  0                  0|]
New Line.e_4_436_e_5_4_436 Phases=3 bus1=e_4_436.1.2.3 bus2=e_5_4_436.1.2.3 Units=km Length=0.062484 Rmatrix=[0.0710846666667    0.0120296666667    0.0120296666667| 0.0120296666667    0.0710846666667    0.0120296666667| 0.0120296666667    0.0120296666667    0.0710846666667|] Xmatrix=[ 0.138888666667    0.0503056666667    0.0503056666667| 0.0503056666667     0.138888666667    0.0503056666667| 0.0503056666667    0.0503056666667     0.138888666667|] Cmatrix=[0                  0                  0| 0                  0                  0| 0                  0                  0|]
New Line.e_5_4_436_e_5_5_436 Phases=3 bus1=e_5_4_436.1.2.3 bus2=e_5_5_436.1.2.3 Units=km Length=0.12192 Rmatrix=[0.0710846666667    0.0120296666667    0.0120296666667| 0.0120296666667    0.0710846666667    0.0120296666667| 0.0120296666667    0.0120296666667    0.0710846666667|] Xmatrix=[ 0.138888666667    0.0503056666667    0.0503056666667| 0.0503056666667     0.138888666667    0.0503056666667| 0.0503056666667    0.0503056666667     0.138888666667|] Cmatrix=[0                  0                  0| 0                  0                  0| 0                  0                  0|]
New Line.e_5_7_413_e_5_8_1_413 Phases=3 bus1=e_5_7_413.1.2.3 bus2=e_5_8_1_413.1.2.3 Units=km Length=0.135636 Rmatrix=[  0.0514           0.008749           0.008749| 0.008749             0.0514           0.008749| 0.008749           0.008749             0.0514|] Xmatrix=[ 0.125767333333    0.0437463333333    0.0437463333333| 0.0437463333333     0.125767333333    0.0437463333333| 0.0437463333333    0.0437463333333     0.125767333333|] Cmatrix=[0                  0                  0| 0                  0                  0| 0                  0                  0|]
New Line.e_6a_2_ec_12_e_6a_5_ec_12 Phases=3 bus1=e_6a_2_ec_12.1.2.3 bus2=e_6a_5_ec_12.1.2.3 Units=km Length=0.1271016 Rmatrix=[  0.0514           0.008749           0.008749| 0.008749             0.0514           0.008749| 0.008749           0.008749             0.0514|] Xmatrix=[ 0.125767333333    0.0437463333333    0.0437463333333| 0.0437463333333     0.125767333333    0.0437463333333| 0.0437463333333    0.0437463333333     0.125767333333|] Cmatrix=[0                  0                  0| 0                  0                  0| 0                  0                  0|]
New Line.e_6a_5_ec_12_e_6a_6_ec_12 Phases=3 bus1=e_6a_5_ec_12.1.2.3 bus2=e_6a_6_ec_12.1.2.3 Units=km Length=0.132588 Rmatrix=[  0.0514           0.008749           0.008749| 0.008749             0.0514           0.008749| 0.008749           0.008749             0.0514|] Xmatrix=[ 0.125767333333    0.0437463333333    0.0437463333333| 0.0437463333333     0.125767333333    0.0437463333333| 0.0437463333333    0.0437463333333     0.125767333333|] Cmatrix=[0                  0                  0| 0                  0                  0| 0                  0                  0|]
New Line.e_6a_2_ec_25_e_6a_5_ec_25 Phases=3 bus1=e_6a_2_ec_25.1.2.3 bus2=e_6a_5_ec_25.1.2.3 Units=km Length=0.1271016 Rmatrix=[  0.0514           0.008749           0.008749| 0.008749             0.0514           0.008749| 0.008749           0.008749             0.0514|] Xmatrix=[ 0.125767333333    0.0437463333333    0.0437463333333| 0.0437463333333     0.125767333333    0.0437463333333| 0.0437463333333    0.0437463333333     0.125767333333|] Cmatrix=[0                  0                  0| 0                  0                  0| 0                  0                  0|]
New Line.e_6a_5_ec_25_e_6a_6_ec_25 Phases=3 bus1=e_6a_5_ec_25.1.2.3 bus2=e_6a_6_ec_25.1.2.3 Units=km Length=0.132588 Rmatrix=[  0.0514           0.008749           0.008749| 0.008749             0.0514           0.008749| 0.008749           0.008749             0.0514|] Xmatrix=[ 0.125767333333    0.0437463333333    0.0437463333333| 0.0437463333333     0.125767333333    0.0437463333333| 0.0437463333333    0.0437463333333     0.125767333333|] Cmatrix=[0                  0                  0| 0                  0                  0| 0                  0                  0|]
New Line.e_5_1_37_e_6a_5_ec_37 Phases=3 bus1=e_5_1_37.1.2.3 bus2=e_6a_5_ec_37.1.2.3 Units=km Length=0.1292352 Rmatrix=[  0.0514           0.008749           0.008749| 0.008749             0.0514           0.008749| 0.008749           0.008749             0.0514|] Xmatrix=[ 0.125767333333    0.0437463333333    0.0437463333333| 0.0437463333333     0.125767333333    0.0437463333333| 0.0437463333333    0.0437463333333     0.125767333333|] Cmatrix=[0                  0                  0| 0                  0                  0| 0                  0                  0|]
New Line.e_6a_5_ec_37_e_6a_6_ec_37 Phases=3 bus1=e_6a_5_ec_37.1.2.3 bus2=e_6a_6_ec_37.1.2.3 Units=km Length=0.132588 Rmatrix=[  0.0514           0.008749           0.008749| 0.008749             0.0514           0.008749| 0.008749           0.008749             0.0514|] Xmatrix=[ 0.125767333333    0.0437463333333    0.0437463333333| 0.0437463333333     0.125767333333    0.0437463333333| 0.0437463333333    0.0437463333333     0.125767333333|] Cmatrix=[0                  0                  0| 0                  0                  0| 0                  0                  0|]
New Line.e_6a_6_ec_12_mcss_mb Phases=3 bus1=e_6a_6_ec_12.1.2.3 bus2=mcss_mb.1.2.3 Units=km Length=0.03048 Rmatrix=[  0.0514           0.008749           0.008749| 0.008749             0.0514           0.008749| 0.008749           0.008749             0.0514|] Xmatrix=[ 0.125767333333    0.0437463333333    0.0437463333333| 0.0437463333333     0.125767333333    0.0437463333333| 0.0437463333333    0.0437463333333     0.125767333333|] Cmatrix=[0                  0                  0| 0                  0                  0| 0                  0                  0|]
New Line.e_6a_6_ec_25_mcss_ma Phases=3 bus1=e_6a_6_ec_25.1.2.3 bus2=mcss_ma.1.2.3 Units=km Length=0.0381 Rmatrix=[  0.0514           0.008749           0.008749| 0.008749             0.0514           0.008749| 0.008749           0.008749             0.0514|] Xmatrix=[ 0.125767333333    0.0437463333333    0.0437463333333| 0.0437463333333     0.125767333333    0.0437463333333| 0.0437463333333    0.0437463333333     0.125767333333|] Cmatrix=[0                  0                  0| 0                  0                  0| 0                  0                  0|]
New Line.e_6a_6_ec_37_mcss_mc Phases=3 bus1=e_6a_6_ec_37.1.2.3 bus2=mcss_mc.1.2.3 Units=km Length=0.024384 Rmatrix=[  0.0514           0.008749           0.008749| 0.008749             0.0514           0.008749| 0.008749           0.008749             0.0514|] Xmatrix=[ 0.125767333333    0.0437463333333    0.0437463333333| 0.0437463333333     0.125767333333    0.0437463333333| 0.0437463333333    0.0437463333333     0.125767333333|] Cmatrix=[0                  0                  0| 0                  0                  0| 0                  0                  0|]
New Line.mcss_mc_e_4_436 Phases=3 bus1=mcss_mc.1.2.3 bus2=e_4_436.1.2.3 Units=km Length=0.048768 Rmatrix=[0.0710846666667    0.0120296666667    0.0120296666667| 0.0120296666667    0.0710846666667    0.0120296666667| 0.0120296666667    0.0120296666667    0.0710846666667|] Xmatrix=[ 0.138888666667    0.0503056666667    0.0503056666667| 0.0503056666667     0.138888666667    0.0503056666667| 0.0503056666667    0.0503056666667     0.138888666667|] Cmatrix=[0                  0                  0| 0                  0                  0| 0                  0                  0|]
New Line.mcss_mc_e_6a_6_ma_437 Phases=3 bus1=mcss_mc.1.2.3 bus2=e_6a_6_ma_437.1.2.3 Units=km Length=0.028956 Rmatrix=[0.0710846666667    0.0120296666667    0.0120296666667| 0.0120296666667    0.0710846666667    0.0120296666667| 0.0120296666667    0.0120296666667    0.0710846666667|] Xmatrix=[ 0.138888666667    0.0503056666667    0.0503056666667| 0.0503056666667     0.138888666667    0.0503056666667| 0.0503056666667    0.0503056666667     0.138888666667|] Cmatrix=[0                  0                  0| 0                  0                  0| 0                  0                  0|]
New Line.mcss_mc_bus_xf_cpt_1c Phases=3 bus1=mcss_mc.1.2.3 bus2=bus_xf_cpt_1c.1.2.3 Units=km Length=0.024384 Rmatrix=[ 0.258096666667    0.0415566666667    0.0415566666667| 0.0415566666667     0.258096666667    0.0415566666667| 0.0415566666667    0.0415566666667     0.258096666667|] Xmatrix=[0.15967            0.05468            0.05468| 0.05468            0.15967            0.05468| 0.05468            0.05468            0.15967|] Cmatrix=[0                  0                  0| 0                  0                  0| 0                  0                  0|]
New Line.e_6a_5_412_e_5_1_412 Phases=3 bus1=e_6a_5_412.1.2.3 bus2=e_5_1_412.1.2.3 Units=km Length=0.1292352 Rmatrix=[0.0710846666667    0.0120296666667    0.0120296666667| 0.0120296666667    0.0710846666667    0.0120296666667| 0.0120296666667    0.0120296666667    0.0710846666667|] Xmatrix=[ 0.138888666667    0.0503056666667    0.0503056666667| 0.0503056666667     0.138888666667    0.0503056666667| 0.0503056666667    0.0503056666667     0.138888666667|] Cmatrix=[0                  0                  0| 0                  0                  0| 0                  0                  0|]
New Line.e_6a_5_ma_437_e_5_1_437 Phases=3 bus1=e_6a_5_ma_437.1.2.3 bus2=e_5_1_437.1.2.3 Units=km Length=0.1292352 Rmatrix=[0.0710846666667    0.0120296666667    0.0120296666667| 0.0120296666667    0.0710846666667    0.0120296666667| 0.0120296666667    0.0120296666667    0.0710846666667|] Xmatrix=[ 0.138888666667    0.0503056666667    0.0503056666667| 0.0503056666667     0.138888666667    0.0503056666667| 0.0503056666667    0.0503056666667     0.138888666667|] Cmatrix=[0                  0                  0| 0                  0                  0| 0                  0                  0|]
New Line.e_5_7_406_e_5_8_1_406 Phases=3 bus1=e_5_7_406.1.2.3 bus2=e_5_8_1_406.1.2.3 Units=km Length=0.135636 Rmatrix=[  0.0514           0.008749           0.008749| 0.008749             0.0514           0.008749| 0.008749           0.008749             0.0514|] Xmatrix=[ 0.125767333333    0.0437463333333    0.0437463333333| 0.0437463333333     0.125767333333    0.0437463333333| 0.0437463333333    0.0437463333333     0.125767333333|] Cmatrix=[0                  0                  0| 0                  0                  0| 0                  0                  0|]
New Line.e_5_8_1_406_ss_127 Phases=3 bus1=e_5_8_1_406.1.2.3 bus2=ss_127.1.2.3 Units=km Length=0.088392 Rmatrix=[ 0.0513999999986   0.00874899999991   0.00874899999991| 0.00874899999991    0.0514000000009   0.00874900000016| 0.00874899999991   0.00874900000016    0.0513999999997|] Xmatrix=[ 0.125767333334    0.0437463333333    0.0437463333329| 0.0437463333333     0.125767333333    0.0437463333336| 0.0437463333329    0.0437463333336     0.125767333335|] Cmatrix=[0                  0                  0| 0                  0                  0| 0                  0                  0|]
New Line.e_5_8_1_406_ss_102_ec Phases=3 bus1=e_5_8_1_406.1.2.3 bus2=ss_102_ec.1.2.3 Units=km Length=0.0810768 Rmatrix=[  0.0514           0.008749           0.008749| 0.008749             0.0514           0.008749| 0.008749           0.008749             0.0514|] Xmatrix=[ 0.125767333333    0.0437463333333    0.0437463333333| 0.0437463333333     0.125767333333    0.0437463333333| 0.0437463333333    0.0437463333333     0.125767333333|] Cmatrix=[0                  0                  0| 0                  0                  0| 0                  0                  0|]
New Line.e_5_7_407_e_5_8_1_407 Phases=3 bus1=e_5_7_407.1.2.3 bus2=e_5_8_1_407.1.2.3 Units=km Length=0.135636 Rmatrix=[  0.0514           0.008749           0.008749| 0.008749             0.0514           0.008749| 0.008749           0.008749             0.0514|] Xmatrix=[ 0.125767333333    0.0437463333333    0.0437463333333| 0.0437463333333     0.125767333333    0.0437463333333| 0.0437463333333    0.0437463333333     0.125767333333|] Cmatrix=[0                  0                  0| 0                  0                  0| 0                  0                  0|]
New Line.e_5_8_1_407_ss_126 Phases=3 bus1=e_5_8_1_407.1.2.3 bus2=ss_126.1.2.3 Units=km Length=0.088392 Rmatrix=[ 0.0513999999999   0.00874900000001   0.00874899999997| 0.00874900000001    0.0513999999988   0.00874900000009| 0.00874899999997   0.00874900000009    0.0513999999989|] Xmatrix=[ 0.125767333333    0.0437463333332    0.0437463333336| 0.0437463333332     0.125767333333    0.0437463333333| 0.0437463333336    0.0437463333333     0.125767333333|] Cmatrix=[0                  0                  0| 0                  0                  0| 0                  0                  0|]
New Line.e_5_8_1_407_ss_103_ec Phases=3 bus1=e_5_8_1_407.1.2.3 bus2=ss_103_ec.1.2.3 Units=km Length=0.0810768 Rmatrix=[  0.0514           0.008749           0.008749| 0.008749             0.0514           0.008749| 0.008749           0.008749             0.0514|] Xmatrix=[ 0.125767333333    0.0437463333333    0.0437463333333| 0.0437463333333     0.125767333333    0.0437463333333| 0.0437463333333    0.0437463333333     0.125767333333|] Cmatrix=[0                  0                  0| 0                  0                  0| 0                  0                  0|]
New Line.e_6a_6_412_e_6a_5_412 Phases=3 bus1=e_6a_6_412.1.2.3 bus2=e_6a_5_412.1.2.3 Units=km Length=0.132588 Rmatrix=[0.0710846666667    0.0120296666667    0.0120296666667| 0.0120296666667    0.0710846666667    0.0120296666667| 0.0120296666667    0.0120296666667    0.0710846666667|] Xmatrix=[ 0.138888666667    0.0503056666667    0.0503056666667| 0.0503056666667     0.138888666667    0.0503056666667| 0.0503056666667    0.0503056666667     0.138888666667|] Cmatrix=[0                  0                  0| 0                  0                  0| 0                  0                  0|]
New Line.e_6a_6_ma_437_e_6a_5_ma_437 Phases=3 bus1=e_6a_6_ma_437.1.2.3 bus2=e_6a_5_ma_437.1.2.3 Units=km Length=0.132588 Rmatrix=[0.0710846666667    0.0120296666667    0.0120296666667| 0.0120296666667    0.0710846666667    0.0120296666667| 0.0120296666667    0.0120296666667    0.0710846666667|] Xmatrix=[ 0.138888666667    0.0503056666667    0.0503056666667| 0.0503056666667     0.138888666667    0.0503056666667| 0.0503056666667    0.0503056666667     0.138888666667|] Cmatrix=[0                  0                  0| 0                  0                  0| 0                  0                  0|]
New Line.ss_102_ec_t_051 Phases=3 bus1=ss_102_ec.1.2.3 bus2=t_051.1.2.3 Units=km Length=0.01524 Rmatrix=[0.0710846666666    0.0120296666667    0.0120296666667| 0.0120296666667    0.0710846666667    0.0120296666667| 0.0120296666667    0.0120296666667    0.0710846666667|] Xmatrix=[ 0.138888666667    0.0503056666667    0.0503056666667| 0.0503056666667     0.138888666667    0.0503056666667| 0.0503056666667    0.0503056666667     0.138888666667|] Cmatrix=[0                  0                  0| 0                  0                  0| 0                  0                  0|]
New Line.ss_102_ec_t_053 Phases=3 bus1=ss_102_ec.1.2.3 bus2=t_053.1.2.3 Units=km Length=0.01524 Rmatrix=[0.0710846666666    0.0120296666667    0.0120296666667| 0.0120296666667    0.0710846666667    0.0120296666667| 0.0120296666667    0.0120296666667    0.0710846666667|] Xmatrix=[ 0.138888666667    0.0503056666667    0.0503056666667| 0.0503056666667     0.138888666667    0.0503056666667| 0.0503056666667    0.0503056666667     0.138888666667|] Cmatrix=[0                  0                  0| 0                  0                  0| 0                  0                  0|]
New Line.ss_103_ec_t_050 Phases=3 bus1=ss_103_ec.1.2.3 bus2=t_050.1.2.3 Units=km Length=0.02286 Rmatrix=[0.0710846666667    0.0120296666667    0.0120296666667| 0.0120296666667    0.0710846666667    0.0120296666667| 0.0120296666667    0.0120296666667    0.0710846666667|] Xmatrix=[ 0.138888666667    0.0503056666667    0.0503056666667| 0.0503056666667     0.138888666667    0.0503056666667| 0.0503056666667    0.0503056666667     0.138888666667|] Cmatrix=[0                  0                  0| 0                  0                  0| 0                  0                  0|]
New Line.ss_103_ec_t_049 Phases=3 bus1=ss_103_ec.1.2.3 bus2=t_049.1.2.3 Units=km Length=0.012192 Rmatrix=[0.0710846666667    0.0120296666667    0.0120296666667| 0.0120296666667    0.0710846666667    0.0120296666667| 0.0120296666667    0.0120296666667    0.0710846666667|] Xmatrix=[ 0.138888666667    0.0503056666667    0.0503056666667| 0.0503056666667     0.138888666667    0.0503056666667| 0.0503056666667    0.0503056666667     0.138888666667|] Cmatrix=[0                  0                  0| 0                  0                  0| 0                  0                  0|]
New Line.ss_114_ec_ss_116_ec Phases=3 bus1=ss_114_ec.1.2.3 bus2=ss_116_ec.1.2.3 Units=km Length=0.056388 Rmatrix=[0.0710846666667    0.0120296666667    0.0120296666667| 0.0120296666667    0.0710846666667    0.0120296666667| 0.0120296666667    0.0120296666667    0.0710846666667|] Xmatrix=[ 0.138888666667    0.0503056666667    0.0503056666667| 0.0503056666667     0.138888666667    0.0503056666667| 0.0503056666667    0.0503056666667     0.138888666667|] Cmatrix=[0                  0                  0| 0                  0                  0| 0                  0                  0|]
New Line.ss_115_ec_ss_117_ec Phases=3 bus1=ss_115_ec.1.2.3 bus2=ss_117_ec.1.2.3 Units=km Length=0.056388 Rmatrix=[0.0710846666667    0.0120296666667    0.0120296666667| 0.0120296666667    0.0710846666667    0.0120296666667| 0.0120296666667    0.0120296666667    0.0710846666667|] Xmatrix=[ 0.138888666667    0.0503056666667    0.0503056666667| 0.0503056666667     0.138888666667    0.0503056666667| 0.0503056666667    0.0503056666667     0.138888666667|] Cmatrix=[0                  0                  0| 0                  0                  0| 0                  0                  0|]
New Line.ss_125_mcss_bus_pd_t_304 Phases=3 bus1=ss_125_mcss.1.2.3 bus2=bus_pd_t_304.1.2.3 Units=km Length=0.00762 Rmatrix=[0.0710846666667    0.0120296666667    0.0120296666667| 0.0120296666667    0.0710846666667    0.0120296666667| 0.0120296666667    0.0120296666667    0.0710846666667|] Xmatrix=[ 0.138888666667    0.0503056666667    0.0503056666667| 0.0503056666667     0.138888666667    0.0503056666667| 0.0503056666667    0.0503056666667     0.138888666667|] Cmatrix=[0                  0                  0| 0                  0                  0| 0                  0                  0|]
New Line.ss_125_mcss_bus_jmc_temp_pwr_li_sw Phases=3 bus1=ss_125_mcss.1.2.3 bus2=bus_jmc_temp_pwr_li_sw.1.2.3 Units=km Length=0.42672 Rmatrix=[ 0.071084666664    0.0120296666667    0.0120296666669| 0.0120296666667    0.0710846666661    0.0120296666668| 0.0120296666669    0.0120296666668    0.0710846666687|] Xmatrix=[ 0.138888666669    0.0503056666669    0.0503056666664| 0.0503056666669     0.138888666668    0.0503056666665| 0.0503056666664    0.0503056666665     0.138888666665|] Cmatrix=[0                  0                  0| 0                  0                  0| 0                  0                  0|]
New Line.ss_125_mcss_e_4_2_t_396 Phases=3 bus1=ss_125_mcss.1.2.3 bus2=e_4_2_t_396.1.2.3 Units=km Length=0.0201168 Rmatrix=[0.0710846666667    0.0120296666667    0.0120296666667| 0.0120296666667    0.0710846666667    0.0120296666667| 0.0120296666667    0.0120296666667    0.0710846666667|] Xmatrix=[ 0.138888666667    0.0503056666667    0.0503056666667| 0.0503056666667     0.138888666667    0.0503056666667| 0.0503056666667    0.0503056666667     0.138888666667|] Cmatrix=[0                  0                  0| 0                  0                  0| 0                  0                  0|]
New Line.ss_130_tus_1n_pri Phases=3 bus1=ss_130.1.2.3 bus2=tus_1n_pri.1.2.3 Units=km Length=0.021336 Rmatrix=[  0.0514           0.008749           0.008749| 0.008749             0.0514           0.008749| 0.008749           0.008749             0.0514|] Xmatrix=[ 0.125767333333    0.0437463333333    0.0437463333333| 0.0437463333333     0.125767333333    0.0437463333333| 0.0437463333333    0.0437463333333     0.125767333333|] Cmatrix=[0                  0                  0| 0                  0                  0| 0                  0                  0|]
New Line.ss_130_tus_3n_pri Phases=3 bus1=ss_130.1.2.3 bus2=tus_3n_pri.1.2.3 Units=km Length=0.019812 Rmatrix=[  0.0514           0.008749           0.008749| 0.008749             0.0514           0.008749| 0.008749           0.008749             0.0514|] Xmatrix=[ 0.125767333333    0.0437463333333    0.0437463333333| 0.0437463333333     0.125767333333    0.0437463333333| 0.0437463333333    0.0437463333333     0.125767333333|] Cmatrix=[0                  0                  0| 0                  0                  0| 0                  0                  0|]
New Line.ss_130_tus_5n_pri Phases=3 bus1=ss_130.1.2.3 bus2=tus_5n_pri.1.2.3 Units=km Length=0.010668 Rmatrix=[  0.0514           0.008749           0.008749| 0.008749             0.0514           0.008749| 0.008749           0.008749             0.0514|] Xmatrix=[ 0.125767333333    0.0437463333333    0.0437463333333| 0.0437463333333     0.125767333333    0.0437463333333| 0.0437463333333    0.0437463333333     0.125767333333|] Cmatrix=[0                  0                  0| 0                  0                  0| 0                  0                  0|]
New Line.ss_131_tus_2n_pri Phases=3 bus1=ss_131.1.2.3 bus2=tus_2n_pri.1.2.3 Units=km Length=0.012192 Rmatrix=[  0.0514           0.008749           0.008749| 0.008749             0.0514           0.008749| 0.008749           0.008749             0.0514|] Xmatrix=[ 0.125767333333    0.0437463333333    0.0437463333333| 0.0437463333333     0.125767333333    0.0437463333333| 0.0437463333333    0.0437463333333     0.125767333333|] Cmatrix=[0                  0                  0| 0                  0                  0| 0                  0                  0|]
New Line.ss_131_tus_4n_pri Phases=3 bus1=ss_131.1.2.3 bus2=tus_4n_pri.1.2.3 Units=km Length=0.010668 Rmatrix=[  0.0514           0.008749           0.008749| 0.008749             0.0514           0.008749| 0.008749           0.008749             0.0514|] Xmatrix=[ 0.125767333333    0.0437463333333    0.0437463333333| 0.0437463333333     0.125767333333    0.0437463333333| 0.0437463333333    0.0437463333333     0.125767333333|] Cmatrix=[0                  0                  0| 0                  0                  0| 0                  0                  0|]
New Line.ss_131_tus_6n_pri Phases=3 bus1=ss_131.1.2.3 bus2=tus_6n_pri.1.2.3 Units=km Length=0.024384 Rmatrix=[  0.0514           0.008749           0.008749| 0.008749             0.0514           0.008749| 0.008749           0.008749             0.0514|] Xmatrix=[ 0.125767333333    0.0437463333333    0.0437463333333| 0.0437463333333     0.125767333333    0.0437463333333| 0.0437463333333    0.0437463333333     0.125767333333|] Cmatrix=[0                  0                  0| 0                  0                  0| 0                  0                  0|]
New Line.e_5_3_2_ss_138_ss_138 Phases=3 bus1=e_5_3_2_ss_138.1.2.3 bus2=ss_138.1.2.3 Units=km Length=0.01524 Rmatrix=[0.0710846666667    0.0120296666667    0.0120296666667| 0.0120296666667    0.0710846666667    0.0120296666667| 0.0120296666667    0.0120296666667    0.0710846666667|] Xmatrix=[ 0.138888666667    0.0503056666667    0.0503056666667| 0.0503056666667     0.138888666667    0.0503056666667| 0.0503056666667    0.0503056666667     0.138888666667|] Cmatrix=[0                  0                  0| 0                  0                  0| 0                  0                  0|]
New Line.ss_138_e_5_3_2_t_359_rad Phases=3 bus1=ss_138.1.2.3 bus2=e_5_3_2_t_359_rad.1.2.3 Units=km Length=0.01524 Rmatrix=[0.0710846666667    0.0120296666667    0.0120296666667| 0.0120296666667    0.0710846666667    0.0120296666667| 0.0120296666667    0.0120296666667    0.0710846666667|] Xmatrix=[ 0.138888666667    0.0503056666667    0.0503056666667| 0.0503056666667     0.138888666667    0.0503056666667| 0.0503056666667    0.0503056666667     0.138888666667|] Cmatrix=[0                  0                  0| 0                  0                  0| 0                  0                  0|]
New Line.ss_138_bus_pd_ec_temp_tr Phases=3 bus1=ss_138.1.2.3 bus2=bus_pd_ec_temp_tr.1.2.3 Units=km Length=0.01524 Rmatrix=[0.0710846666667    0.0120296666667    0.0120296666667| 0.0120296666667    0.0710846666667    0.0120296666667| 0.0120296666667    0.0120296666667    0.0710846666667|] Xmatrix=[ 0.138888666667    0.0503056666667    0.0503056666667| 0.0503056666667     0.138888666667    0.0503056666667| 0.0503056666667    0.0503056666667     0.138888666667|] Cmatrix=[0                  0                  0| 0                  0                  0| 0                  0                  0|]
New Line.bus_jmc_temp_pwr_li_sw_bus_jmc_temp_pwr_pri Phases=3 bus1=bus_jmc_temp_pwr_li_sw.1.2.3 bus2=bus_jmc_temp_pwr_pri.1.2.3 Units=km Length=0.0036576 Rmatrix=[0.16076            0.02625            0.02625| 0.02625            0.16076            0.02625| 0.02625            0.02625            0.16076|] Xmatrix=[ 0.14873           0.050305           0.050305| 0.050305            0.14873           0.050305| 0.050305           0.050305            0.14873|] Cmatrix=[0                  0                  0| 0                  0                  0| 0                  0                  0|]
New Line.east_campus_1_bus_xf_cpt_c_pri Phases=3 bus1=east_campus_1.1.2.3 bus2=bus_xf_cpt_c_pri.1.2.3 Units=km Length=0.016764 Rmatrix=[ 0.258096666667    0.0415566666667    0.0415566666667| 0.0415566666667     0.258096666667    0.0415566666667| 0.0415566666667    0.0415566666667     0.258096666667|] Xmatrix=[0.15967            0.05468            0.05468| 0.05468            0.15967            0.05468| 0.05468            0.05468            0.15967|] Cmatrix=[0                  0                  0| 0                  0                  0| 0                  0                  0|]
New Line.east_campus_1_bus_xf_cpt_e_pri Phases=3 bus1=east_campus_1.1.2.3 bus2=bus_xf_cpt_e_pri.1.2.3 Units=km Length=0.01524 Rmatrix=[ 0.258096666667    0.0415566666667    0.0415566666667| 0.0415566666667     0.258096666667    0.0415566666667| 0.0415566666667    0.0415566666667     0.258096666667|] Xmatrix=[0.15967            0.05468            0.05468| 0.05468            0.15967            0.05468| 0.05468            0.05468            0.15967|] Cmatrix=[0                  0                  0| 0                  0                  0| 0                  0                  0|]
New Line.east_campus_1_bus_xf_cpt_w_pri Phases=3 bus1=east_campus_1.1.2.3 bus2=bus_xf_cpt_w_pri.1.2.3 Units=km Length=0.018288 Rmatrix=[ 0.258096666667    0.0415566666667    0.0415566666667| 0.0415566666667     0.258096666667    0.0415566666667| 0.0415566666667    0.0415566666667     0.258096666667|] Xmatrix=[0.15967            0.05468            0.05468| 0.05468            0.15967            0.05468| 0.05468            0.05468            0.15967|] Cmatrix=[0                  0                  0| 0                  0                  0| 0                  0                  0|]
New Line.east_campus_1_e_6_1_19 Phases=3 bus1=east_campus_1.1.2.3 bus2=e_6_1_19.1.2.3 Units=km Length=0.100584 Rmatrix=[0.0710846666667    0.0120296666667    0.0120296666667| 0.0120296666667    0.0710846666667    0.0120296666667| 0.0120296666667    0.0120296666667    0.0710846666667|] Xmatrix=[ 0.138888666667    0.0503056666667    0.0503056666667| 0.0503056666667     0.138888666667    0.0503056666667| 0.0503056666667    0.0503056666667     0.138888666667|] Cmatrix=[0                  0                  0| 0                  0                  0| 0                  0                  0|]
New Line.east_campus_1_e_7_1_7 Phases=3 bus1=east_campus_1.1.2.3 bus2=e_7_1_7.1.2.3 Units=km Length=0.021336 Rmatrix=[0.0710846666667    0.0120296666667    0.0120296666667| 0.0120296666667    0.0710846666667    0.0120296666667| 0.0120296666667    0.0120296666667    0.0710846666667|] Xmatrix=[ 0.138888666667    0.0503056666667    0.0503056666667| 0.0503056666667     0.138888666667    0.0503056666667| 0.0503056666667    0.0503056666667     0.138888666667|] Cmatrix=[0                  0                  0| 0                  0                  0| 0                  0                  0|]
New Line.east_campus_1_e_9_0_ec_25 Phases=3 bus1=east_campus_1.1.2.3 bus2=e_9_0_ec_25.1.2.3 Units=km Length=0.05334 Rmatrix=[  0.0514           0.008749           0.008749| 0.008749    0.0513999999999           0.008749| 0.008749           0.008749             0.0514|] Xmatrix=[ 0.125767333333    0.0437463333333    0.0437463333333| 0.0437463333333     0.125767333333    0.0437463333333| 0.0437463333333    0.0437463333333     0.125767333333|] Cmatrix=[0                  0                  0| 0                  0                  0| 0                  0                  0|]
New Line.east_campus_1_e_7_1_nc1 Phases=3 bus1=east_campus_1.1.2.3 bus2=e_7_1_nc1.1.2.3 Units=km Length=0.021336 Rmatrix=[0.0710846666667    0.0120296666667    0.0120296666667| 0.0120296666667    0.0710846666667    0.0120296666667| 0.0120296666667    0.0120296666667    0.0710846666667|] Xmatrix=[ 0.138888666667    0.0503056666667    0.0503056666667| 0.0503056666667     0.138888666667    0.0503056666667| 0.0503056666667    0.0503056666667     0.138888666667|] Cmatrix=[0                  0                  0| 0                  0                  0| 0                  0                  0|]
New Line.psb_sg1_bus Phases=3 bus1=psb.1.2.3 bus2=sg1_bus.1.2.3 Units=km Length=0.085344 Rmatrix=[0.0710846666664    0.0120296666666    0.0120296666667| 0.0120296666666    0.0710846666666    0.0120296666667| 0.0120296666667    0.0120296666667    0.0710846666658|] Xmatrix=[ 0.138888666666    0.0503056666666    0.0503056666667| 0.0503056666666     0.138888666666    0.0503056666667| 0.0503056666667    0.0503056666667     0.138888666666|] Cmatrix=[0                  0                  0| 0                  0                  0| 0                  0                  0|]
New Line.psb_sw_t_087 Phases=3 bus1=psb.1.2.3 bus2=sw_t_087.1.2.3 Units=km Length=0.04572 Rmatrix=[0.0710846666666    0.0120296666667    0.0120296666666| 0.0120296666667    0.0710846666664    0.0120296666667| 0.0120296666666    0.0120296666667    0.0710846666662|] Xmatrix=[ 0.138888666666    0.0503056666664    0.0503056666665| 0.0503056666664     0.138888666666    0.0503056666666| 0.0503056666665    0.0503056666666     0.138888666666|] Cmatrix=[0                  0                  0| 0                  0                  0| 0                  0                  0|]
...